HPMCAS-H-Trimer-polymer
                    3D
 Schrodinger Suite 2023-2.
111113  0  0  1  0            999 V2000
   -4.7912    1.0295   -6.6722 H   0  0  0  0  0  0
   -2.7669    1.2590   -5.4045 C   0  0  2  0  0  0
   -1.5555    0.8188   -4.5430 C   0  0  2  0  0  0
   -1.9859    0.7646   -3.0529 C   0  0  1  0  0  0
   -3.0346   -0.1408   -2.9245 O   0  0  0  0  0  0
   -4.2378    0.2661   -3.5740 C   0  0  1  0  0  0
   -3.9605    0.3412   -5.0948 C   0  0  1  0  0  0
   -5.3349   -0.7613   -3.2329 C   0  0  0  0  0  0
   -5.0690    0.8958   -5.7748 O   0  0  0  0  0  0
   -5.7820   -0.6300   -1.8877 O   0  0  0  0  0  0
   -2.5255    1.0424   -6.7962 O   0  0  0  0  0  0
   -0.3833    1.6283   -4.7157 O   0  0  0  0  0  0
   -0.3295    2.9275   -4.3688 C   0  0  0  0  0  0
    1.0313    3.5496   -4.6365 C   0  0  0  0  0  0
   -1.2464    3.5839   -3.8805 O   0  0  0  0  0  0
   -1.9285    2.1360   -7.4772 C   0  0  0  0  0  0
   -5.1297   -1.4977   -0.9731 C   0  0  0  0  0  0
   -5.7636   -1.3087    0.4154 C   0  0  2  0  0  0
   -5.3176   -0.0135    1.1002 C   0  0  0  0  0  0
   -5.4264   -2.3978    1.2496 O   0  0  0  0  0  0
   -3.0504    2.2926   -5.1978 H   0  0  0  0  0  0
   -1.2800   -0.1971   -4.8271 H   0  0  0  0  0  0
   -2.3407    1.7330   -2.6945 H   0  0  0  0  0  0
   -4.5465    1.2459   -3.2043 H   0  0  0  0  0  0
   -3.7645   -0.6620   -5.4778 H   0  0  0  0  0  0
   -6.2061   -0.5633   -3.8580 H   0  0  0  0  0  0
   -5.0196   -1.7786   -3.4710 H   0  0  0  0  0  0
    1.7562    2.7910   -4.9318 H   0  0  0  0  0  0
    0.9549    4.2869   -5.4349 H   0  0  0  0  0  0
    1.3999    4.0485   -3.7403 H   0  0  0  0  0  0
   -1.8887    1.9164   -8.5441 H   0  0  0  0  0  0
   -2.5074    3.0516   -7.3487 H   0  0  0  0  0  0
   -0.9070    2.3156   -7.1462 H   0  0  0  0  0  0
   -5.2718   -2.5278   -1.3035 H   0  0  0  0  0  0
   -4.0566   -1.3139   -0.9406 H   0  0  0  0  0  0
   -6.8497   -1.3022    0.3103 H   0  0  0  0  0  0
   -5.5687    0.8530    0.4883 H   0  0  0  0  0  0
   -5.8066    0.1086    2.0666 H   0  0  0  0  0  0
   -4.2414   -0.0039    1.2690 H   0  0  0  0  0  0
   -5.7854   -3.1849    0.8679 H   0  0  0  0  0  0
   -1.5985    0.8279   -0.0119 C   0  0  2  0  0  0
   -1.2619   -0.3276    0.9620 C   0  0  2  0  0  0
    0.2634   -0.5625    1.1372 C   0  0  1  0  0  0
    0.9857    0.5199    0.6520 O   0  0  0  0  0  0
    0.8806    0.7139   -0.7505 C   0  0  1  0  0  0
   -0.5704    1.0586   -1.1477 C   0  0  1  0  0  0
    1.8397    1.8478   -1.1361 C   0  0  0  0  0  0
   -0.8896    0.3116   -2.3199 O   0  0  0  0  0  0
    3.1928    1.4235   -1.1017 O   0  0  0  0  0  0
   -1.8064    2.0268    0.7360 O   0  0  0  0  0  0
   -1.8758   -1.5129    0.4673 O   0  0  0  0  0  0
   -2.1199   -2.4902    1.4677 C   0  0  0  0  0  0
   -2.7346    2.9411    0.1671 C   0  0  0  0  0  0
    4.1456    2.3379   -1.3323 C   0  0  0  0  0  0
    3.9428    3.5261   -1.5791 O   0  0  0  0  0  0
    5.5612    1.7720   -1.3173 C   0  0  0  0  0  0
    5.8943    0.9689   -0.0413 C   0  0  0  0  0  0
    6.0968   -0.5179   -0.3179 C   0  0  0  0  0  0
    5.7239   -1.0868   -1.3397 O   0  0  0  0  0  0
    6.7266   -1.1401    0.7095 O   0  0  0  0  0  0
   -2.5667    0.5810   -0.4478 H   0  0  0  0  0  0
   -1.6973   -0.0702    1.9302 H   0  0  0  0  0  0
    0.5371   -1.4639    0.5962 H   0  0  0  0  0  0
    1.1863   -0.1984   -1.2653 H   0  0  0  0  0  0
   -0.5913    2.1152   -1.4151 H   0  0  0  0  0  0
    1.6205    2.1785   -2.1517 H   0  0  0  0  0  0
    1.6882    2.7053   -0.4780 H   0  0  0  0  0  0
   -2.6086   -3.3548    1.0190 H   0  0  0  0  0  0
   -1.1953   -2.8334    1.9319 H   0  0  0  0  0  0
   -2.7793   -2.1045    2.2465 H   0  0  0  0  0  0
   -2.4154    3.2980   -0.8119 H   0  0  0  0  0  0
   -3.7239    2.4930    0.0681 H   0  0  0  0  0  0
   -2.8301    3.8096    0.8187 H   0  0  0  0  0  0
    5.7033    1.1817   -2.2222 H   0  0  0  0  0  0
    6.2518    2.6109   -1.3981 H   0  0  0  0  0  0
    6.8072    1.3628    0.4047 H   0  0  0  0  0  0
    5.1182    1.0729    0.7185 H   0  0  0  0  0  0
    6.7640   -2.0645    0.5255 H   0  0  0  0  0  0
    3.0056   -1.0403    2.4834 C   0  0  2  0  0  0
    4.0670   -0.8747    3.5968 C   0  0  2  0  0  0
    3.4511   -0.4909    4.9416 C   0  0  0  0  0  0
    2.5446   -1.5200    5.2789 O   0  0  0  0  0  0
    1.3542   -1.4468    4.5109 C   0  0  1  0  0  0
    1.5942   -1.5254    2.9731 C   0  0  1  0  0  0
    0.3916   -2.5466    4.9910 C   0  0  0  0  0  0
    0.5019   -0.7266    2.4974 O   0  0  0  0  0  0
   -0.0287   -2.2936    6.3259 O   0  0  0  0  0  0
    3.6249   -2.0128    1.6303 O   0  0  0  0  0  0
    4.9871    0.1311    3.1814 O   0  0  0  0  0  0
    6.2811    0.0117    3.7524 C   0  0  0  0  0  0
    3.1211   -2.1595    0.3169 C   0  0  0  0  0  0
    0.5430   -2.9508    7.3450 C   0  0  0  0  0  0
    1.3780   -3.8490    7.2537 O   0  0  0  0  0  0
    0.0261   -2.4849    8.6962 C   0  0  0  0  0  0
    2.9195   -0.0814    1.9743 H   0  0  0  0  0  0
    4.5824   -1.8287    3.7312 H   0  0  0  0  0  0
    2.9685    0.4874    4.9052 H   0  0  0  0  0  0
    0.8965   -0.4833    4.7471 H   0  0  0  0  0  0
    1.4537   -2.5583    2.6518 H   0  0  0  0  0  0
   -0.5003   -2.5406    4.3644 H   0  0  0  0  0  0
    0.8417   -3.5341    4.8775 H   0  0  0  0  0  0
    6.7343   -0.9503    3.5097 H   0  0  0  0  0  0
    6.9262    0.7916    3.3480 H   0  0  0  0  0  0
    6.2610    0.1250    4.8362 H   0  0  0  0  0  0
    3.8367   -2.7292   -0.2751 H   0  0  0  0  0  0
    2.1951   -2.7296    0.3069 H   0  0  0  0  0  0
    2.9827   -1.1966   -0.1718 H   0  0  0  0  0  0
    0.2186   -1.4201    8.8241 H   0  0  0  0  0  0
   -1.0467   -2.6603    8.7704 H   0  0  0  0  0  0
    0.5250   -3.0279    9.4985 H   0  0  0  0  0  0
    4.2148   -0.4440    5.7171 H   0  0  0  0  0  0
  1  9  1  0  0  0
  2  3  1  0  0  0
  2  7  1  0  0  0
  2 11  1  0  0  0
  2 21  1  0  0  0
  3  4  1  0  0  0
  3 12  1  0  0  0
  3 22  1  0  0  0
  4  5  1  0  0  0
  4 23  1  0  0  0
  4 48  1  0  0  0
  5  6  1  0  0  0
  6  7  1  0  0  0
  6  8  1  0  0  0
  6 24  1  0  0  0
  7  9  1  0  0  0
  7 25  1  0  0  0
  8 10  1  0  0  0
  8 26  1  0  0  0
  8 27  1  0  0  0
 10 17  1  0  0  0
 11 16  1  0  0  0
 12 13  1  0  0  0
 13 14  1  0  0  0
 13 15  2  0  0  0
 14 28  1  0  0  0
 14 29  1  0  0  0
 14 30  1  0  0  0
 16 31  1  0  0  0
 16 32  1  0  0  0
 16 33  1  0  0  0
 17 18  1  0  0  0
 17 34  1  0  0  0
 17 35  1  0  0  0
 18 19  1  0  0  0
 18 20  1  0  0  0
 18 36  1  0  0  0
 19 37  1  0  0  0
 19 38  1  0  0  0
 19 39  1  0  0  0
 20 40  1  0  0  0
 41 42  1  0  0  0
 41 46  1  0  0  0
 41 50  1  0  0  0
 41 61  1  0  0  0
 42 43  1  0  0  0
 42 51  1  0  0  0
 42 62  1  0  0  0
 43 44  1  0  0  0
 43 63  1  0  0  0
 43 86  1  0  0  0
 44 45  1  0  0  0
 45 46  1  0  0  0
 45 47  1  0  0  0
 45 64  1  0  0  0
 46 48  1  0  0  0
 46 65  1  0  0  0
 47 49  1  0  0  0
 47 66  1  0  0  0
 47 67  1  0  0  0
 49 54  1  0  0  0
 50 53  1  0  0  0
 51 52  1  0  0  0
 52 68  1  0  0  0
 52 69  1  0  0  0
 52 70  1  0  0  0
 53 71  1  0  0  0
 53 72  1  0  0  0
 53 73  1  0  0  0
 54 55  2  0  0  0
 54 56  1  0  0  0
 56 57  1  0  0  0
 56 74  1  0  0  0
 56 75  1  0  0  0
 57 58  1  0  0  0
 57 76  1  0  0  0
 57 77  1  0  0  0
 58 59  2  0  0  0
 58 60  1  0  0  0
 60 78  1  0  0  0
 79 80  1  0  0  0
 79 84  1  0  0  0
 79 88  1  0  0  0
 79 95  1  0  0  0
 80 81  1  0  0  0
 80 89  1  0  0  0
 80 96  1  0  0  0
 81 82  1  0  0  0
 81 97  1  0  0  0
 81111  1  0  0  0
 82 83  1  0  0  0
 83 84  1  0  0  0
 83 85  1  0  0  0
 83 98  1  0  0  0
 84 86  1  0  0  0
 84 99  1  0  0  0
 85 87  1  0  0  0
 85100  1  0  0  0
 85101  1  0  0  0
 87 92  1  0  0  0
 88 91  1  0  0  0
 89 90  1  0  0  0
 90102  1  0  0  0
 90103  1  0  0  0
 90104  1  0  0  0
 91105  1  0  0  0
 91106  1  0  0  0
 91107  1  0  0  0
 92 93  2  0  0  0
 92 94  1  0  0  0
 94108  1  0  0  0
 94109  1  0  0  0
 94110  1  0  0  0
M  END
> <i_f3d_flags>
0

> <i_matsci_highest_rx_xval>
1

> <b_m_subgroup_collapsed>
0

> <r_f3d_energy>
0

> <s_m_Source_File>
HPMCAS-H-TRimer-polymer.maegz

> <s_m_Source_Path>
/home/mosquerl/MAESTRO/Polymers_Drawing/HPMCAS-H-TRimer

> <s_m_entry_id>
16

> <s_m_entry_name>
HPMCAS-H-TRimer.1

> <s_m_job_name>
HPMCAS-H-TRimer

> <s_m_subgroup_title>
HPMCAS-H-Trimer-polymer

> <s_m_subgroupid>
HPMCAS-H-TRimer-polymer

> <s_matsci_name_of_monomer_A>
L1

> <s_matsci_name_of_monomer_B>
L2

> <s_matsci_name_of_monomer_C>
L3

> <s_matsci_polymer_composition>
A1B1C1

> <s_matsci_polymer_gui_marker_list>
2

> <s_matsci_polymer_gui_moiety>
Initiator

> <s_matsci_polymer_sequence>
ABC

> <s_matsci_rx_marker_atom_1>
2

$$$$
